LTspice 26.0.0 for Windows
Circuit: C:\Users\caiod\OneDrive\Documentos\Projetos Python\Graduacao\LAB VI\ltspice\Draft1 (perceptron) - 3N MOSFET.net
Start Time: Wed Dec 10 15:46:58 2025
solver = Normal
Maximum thread count: 8
tnom = 27
temp = 27
method = trap
Early termination of direct N-R iteration.
Direct Newton iteration failed to find operating point.
Starting Gmin stepping
Gmin stepping failed to find operating point. Use".option gminsteps=0" to skip all Gmin stepping.
Starting source stepping with srcstepmethod=0
Source stepping succeeded in finding the operating point.

Total elapsed time: 1.701 seconds.

Files loaded:
C:\Users\caiod\OneDrive\Documentos\Projetos Python\Graduacao\LAB VI\ltspice\Draft1 (perceptron) - 3N MOSFET.net
C:\Users\caiod\AppData\Local\LTspice\lib\cmp\standard.dio
C:\Users\caiod\AppData\Local\LTspice\lib\cmp\standard.mos
C:\Users\caiod\OneDrive\Documentos\Projetos Python\Graduacao\LAB VI\ltspice\LM324.ti.lib

