LTspice 26.0.0 for Windows
Circuit: C:\Users\caiod\OneDrive\Documentos\Projetos Python\Graduacao\LAB VI\ltspice\Draft1 (perceptron).net
Start Time: Fri Dec 12 16:07:35 2025
solver = Normal
Maximum thread count: 8
tnom = 27
temp = 27
method = trap
WARNING: Node sw3 is floating.

Early termination of direct N-R iteration.
Direct Newton iteration failed to find operating point.
Starting Gmin stepping
Gmin stepping failed to find operating point. Use".option gminsteps=0" to skip all Gmin stepping.
Starting source stepping with srcstepmethod=0
Source stepping succeeded in finding the operating point.

Total elapsed time: 0.824 seconds.

Files loaded:
C:\Users\caiod\OneDrive\Documentos\Projetos Python\Graduacao\LAB VI\ltspice\Draft1 (perceptron).net
C:\Users\caiod\AppData\Local\LTspice\lib\cmp\standard.dio
C:\Users\caiod\OneDrive\Documentos\Projetos Python\Graduacao\LAB VI\ltspice\LM324.ti.lib

